Version 4.1
SHEET 1 1044 752
WIRE 192 80 -128 80
WIRE 512 80 192 80
WIRE -128 144 -128 80
WIRE 192 144 192 80
WIRE 512 144 512 80
WIRE 48 160 0 160
WIRE 368 160 320 160
WIRE 320 176 320 160
WIRE -256 192 -304 192
WIRE 0 192 0 160
WIRE 368 208 336 208
WIRE -304 224 -304 192
WIRE 48 240 16 240
WIRE 16 288 16 240
WIRE 336 288 336 208
WIRE 336 288 16 288
WIRE -128 304 -128 240
WIRE 192 304 192 256
WIRE 192 304 -128 304
WIRE 512 304 512 256
WIRE 512 304 192 304
FLAG 0 192 0
FLAG -304 224 0
FLAG 320 176 0
SYMBOL Component_1 128 192 R0
SYMATTR InstName X1
SYMBOL Component_3 -176 192 R0
SYMATTR InstName X2
SYMBOL Component_2 448 192 R0
SYMATTR InstName X3
TEXT 800 408 Left 2 !.include nat_semi.lib
TEXT 800 440 Left 2 !.include tex_inst.lib
TEXT 112 -16 Left 2 !.tran 0 2000m 0 100u
