Version 4.1
SHEET 1 6568 1292
WIRE -800 -272 -976 -272
WIRE -720 -272 -800 -272
WIRE -672 -272 -720 -272
WIRE -656 -272 -672 -272
WIRE -512 -272 -576 -272
WIRE 112 -272 -512 -272
WIRE 384 -272 112 -272
WIRE 528 -272 480 -272
WIRE 560 -272 528 -272
WIRE 672 -272 640 -272
WIRE 768 -272 672 -272
WIRE 352 -256 256 -256
WIRE 16 -224 -432 -224
WIRE 112 -224 112 -272
WIRE 144 -224 112 -224
WIRE 256 -224 256 -256
WIRE 256 -224 224 -224
WIRE 320 -224 256 -224
WIRE 352 -208 352 -256
WIRE 400 -208 400 -224
WIRE 400 -208 352 -208
WIRE -976 -192 -976 -272
WIRE -800 -192 -800 -272
WIRE 320 -176 320 -224
WIRE 368 -176 320 -176
WIRE -432 -128 -432 -224
WIRE -368 -128 -432 -128
WIRE 16 -128 16 -224
WIRE 16 -128 -32 -128
WIRE 256 -128 256 -144
WIRE 256 -128 16 -128
WIRE 368 -128 368 -176
WIRE -1312 -80 -1408 -80
WIRE -1152 -80 -1232 -80
WIRE -976 -80 -976 -128
WIRE -976 -80 -1088 -80
WIRE 528 -80 528 -272
WIRE 672 -80 672 -272
WIRE 768 -80 768 -272
WIRE -720 -64 -720 -272
WIRE -512 -48 -512 -272
WIRE -368 -48 -512 -48
WIRE 96 -48 -32 -48
WIRE -1408 -32 -1408 -80
WIRE -1152 -32 -1152 -80
WIRE -1088 -32 -1088 -80
WIRE 96 -32 96 -48
WIRE 176 -16 176 -48
WIRE 368 -16 368 -64
WIRE -672 32 -672 -272
WIRE -576 32 -672 32
WIRE -368 32 -576 32
WIRE 0 32 -32 32
WIRE 96 32 64 32
WIRE 96 48 96 32
WIRE -576 80 -576 32
WIRE -1408 112 -1408 48
WIRE -1152 112 -1152 48
WIRE -1152 112 -1408 112
WIRE -1088 112 -1088 48
WIRE -800 112 -800 -128
WIRE -800 112 -1088 112
WIRE -368 112 -480 112
WIRE 176 112 176 64
WIRE 176 112 -32 112
WIRE 176 144 176 112
WIRE -976 160 -976 -80
WIRE -800 160 -800 112
WIRE -976 272 -976 224
WIRE -800 272 -800 224
WIRE -800 272 -976 272
WIRE -720 272 -720 0
WIRE -720 272 -800 272
WIRE -576 272 -576 144
WIRE -576 272 -720 272
WIRE -480 272 -480 112
WIRE -480 272 -576 272
WIRE 176 272 176 224
WIRE 176 272 -480 272
WIRE 528 272 528 -16
WIRE 528 272 176 272
WIRE 672 272 672 -16
WIRE 672 272 528 272
WIRE 768 272 768 0
WIRE 768 272 672 272
WIRE -976 352 -976 272
FLAG -976 352 0
FLAG 96 48 0
FLAG 96 -32 0
FLAG 176 -48 Uout
FLAG -720 -272 Uin
FLAG 368 -16 0
SYMBOL mc34063 -128 -32 R0
WINDOW 0 -95 -128 Left 3
WINDOW 3 -137 184 Left 3
SYMATTR InstName U1
SYMBOL pmos 480 -224 M270
SYMATTR InstName M1
SYMATTR Value IRF4905
SYMATTR Prefix X
SYMBOL ind -1136 64 R180
WINDOW 0 36 80 Left 2
WINDOW 3 36 40 Left 2
SYMATTR InstName L1
SYMATTR Value 3161
SYMBOL ind -1104 -48 R0
SYMATTR InstName L2
SYMATTR Value 8.2
SYMBOL diode -960 -128 R180
WINDOW 0 24 64 Left 2
WINDOW 3 24 0 Left 2
SYMATTR InstName D1
SYMBOL diode -784 -128 R180
WINDOW 0 24 64 Left 2
WINDOW 3 24 0 Left 2
SYMATTR InstName D2
SYMBOL diode -960 224 R180
WINDOW 0 24 64 Left 2
WINDOW 3 24 0 Left 2
SYMATTR InstName D3
SYMBOL diode -784 224 R180
WINDOW 0 24 64 Left 2
WINDOW 3 24 0 Left 2
SYMATTR InstName D4
SYMBOL res -1216 -96 R90
WINDOW 0 0 56 VBottom 2
WINDOW 3 32 56 VTop 2
SYMATTR InstName R1
SYMATTR Value 1
SYMBOL res -560 -288 R90
WINDOW 0 0 56 VBottom 2
WINDOW 3 32 56 VTop 2
SYMATTR InstName R2
SYMBOL res 160 128 R0
SYMATTR InstName R3
SYMATTR Value 3333
SYMBOL res 160 -32 R0
SYMATTR InstName R4
SYMBOL res 240 -240 R0
SYMATTR InstName R5
SYMATTR Value 33
SYMBOL ind 544 -256 R270
WINDOW 0 32 56 VTop 2
WINDOW 3 5 56 VBottom 2
SYMATTR InstName L3
SYMBOL voltage -1408 -48 R0
SYMATTR InstName V1
SYMBOL cap -736 -64 R0
SYMATTR InstName C1
SYMATTR Value 5
SYMBOL cap -592 80 R0
SYMATTR InstName C2
SYMATTR Value 10n
SYMBOL cap 64 16 R90
WINDOW 0 0 32 VBottom 2
WINDOW 3 32 32 VTop 2
SYMATTR InstName C3
SYMBOL res 240 -240 R90
WINDOW 0 0 56 VBottom 2
WINDOW 3 32 56 VTop 2
SYMATTR InstName R6
SYMATTR Value 33
SYMBOL zener 384 -64 R180
WINDOW 0 24 64 Left 2
WINDOW 3 24 0 Left 2
SYMATTR InstName D5
SYMBOL zener 544 -16 R180
WINDOW 0 24 64 Left 2
WINDOW 3 24 0 Left 2
SYMATTR InstName D6
SYMBOL cap 656 -80 R0
SYMATTR InstName C4
SYMATTR Value 100µ
SYMBOL res 752 -96 R0
SYMATTR InstName R7
SYMATTR Value 6
TEXT -160 -560 Left 2 !.inc MC34063.lib
TEXT -136 -520 Left 2 !.inc irf4905.spi
